# HFB6 package for  MODFLOW-2005, generated by Flopy.
         0         0       908
         1       216       321       217       321           10
         1       216       319       217       319        1e-09
         1       215       309       216       309        1e-09
         1       216       315       217       315        1e-09
         1       216       315       216       314        1e-09
         1       216       316       217       316        1e-09
         1       215       307       216       307        1e-09
         1       215       307       215       306        1e-09
         1       216       318       217       318        1e-09
         1       216       317       217       317        1e-09
         1       215       325       216       325        1e-09
         1       215       324       216       324        1e-09
         1       215       314       216       314        1e-09
         1       215       313       216       313        1e-09
         1       214       306       215       306        1e-09
         1       215       308       216       308        1e-09
         1       214       305       215       305        1e-09
         1       215       312       216       312        1e-09
         1       215       326       216       326        1e-09
         1       215       327       216       327        1e-09
         1       215       328       216       328        1e-09
         1       215       310       216       310        1e-09
         1       216       323       217       323        1e-09
         1       216       323       216       324        1e-09
         1       215       311       216       311        1e-09
         1       214       300       215       300        1e-09
         1       214       300       214       299        1e-09
         1       215       329       216       329        1e-09
         1       214       301       215       301        1e-09
         1       213       299       214       299        1e-09
         1       216       322       217       322        1e-09
         1       213       298       214       298        1e-09
         1       213       297       214       297        1e-09
         1       216       320       217       320        1e-09
         1       214       302       215       302        1e-09
         1       214       304       215       304        1e-09
         1       213       293       214       293        1e-09
         1       213       292       214       292        1e-09
         1       213       292       213       291        1e-09
         1       213       294       214       294        1e-09
         1       212       291       213       291        1e-09
         1       214       303       215       303        1e-09
         1       212       290       213       290        1e-09
         1       213       295       214       295        1e-08
         1       212       289       213       289        1e-08
         1       212       287       213       287        1e-08
         1       212       286       213       286        1e-08
         1       212       286       212       285        1e-08
         1       212       288       213       288        1e-08
         1       160       161       161       161        1e-08
         1       160       161       160       162        1e-08
         1       257       604       258       604        1e-08
         1       263       579       264       579        1e-08
         1       263       580       264       580        1e-05
         1       257       605       258       605        1e-05
         1       263       581       264       581        1e-05
         1       211       285       212       285        1e-05
         1       263       583       264       583        1e-05
         1       211       284       212       284        1e-05
         1       211       283       212       283        1e-05
         1       159       162       160       162        1e-05
         1       258       603       259       603        1e-05
         1       159       163       160       163        1e-05
         1       211       282       212       282        1e-05
         1       211       282       211       281        1e-05
         1       210       281       211       281        1e-05
         1       208       292       209       292        1e-05
         1       210       279       211       279        1e-05
         1       258       595       259       595        1e-05
         1       210       280       211       280         0.01
         1       209       298       210       298         0.01
         1       209       298       209       297         0.01
         1       258       596       259       596         0.01
         1       208       291       209       291         0.01
         1       208       291       208       290         0.01
         1       204       276       205       276         0.01
         1       205       277       206       277         0.01
         1       205       277       205       276         0.01
         1       208       296       209       296         0.01
         1       208       297       209       297         0.01
         1       258       601       259       601         0.01
         1       258       602       259       602         0.01
         1       208       295       209       295         0.01
         1       258       594       259       594         0.01
         1       258       597       259       597         0.01
         1       210       278       211       278         0.01
         1       210       278       210       277         0.01
         1       257       596       258       596         0.01
         1       208       293       209       293         0.01
         1       209       299       210       299         0.01
         1       257       595       258       595         0.01
         1       207       290       208       290         0.01
         1       204       272       205       272         0.01
         1       204       272       204       271         0.01
         1       205       279       206       279         0.01
         1       257       597       258       597         0.01
         1       204       275       205       275         0.01
         1        75        73        76        73        0.001
         1       258       600       259       600         0.01
         1       205       280       206       280         0.01
         1       203       271       204       271         0.01
         1       263       582       264       582         0.01
         1       258       598       259       598         0.01
         1       206       281       207       281         0.01
         1       206       281       206       280         0.01
         1       208       273       209       273         0.01
         1       263       584       264       584         0.01
         1       209       277       210       277         0.01
         1       205       278       206       278         0.01
         1       257       600       258       600         0.01
         1       208       270       209       270         0.01
         1       208       270       208       269         0.01
         1       209       274       210       274         0.01
         1       209       274       209       273         0.01
         1       206       282       207       282         0.01
         1       257       598       258       598         0.01
         1       204       273       205       273         0.01
         1       207       269       208       269         0.01
         1       209       303       210       303         0.01
         1       258       599       259       599         0.01
         1       206       285       207       285         0.01
         1       257       599       258       599         0.01
         1       207       289       208       289         0.01
         1       209       302       210       302         0.01
         1       210       306       211       306         0.01
         1       210       306       210       305         0.01
         1       209       305       210       305         0.01
         1       223       370       222       370         0.01
         1       207       286       208       286         0.01
         1       207       286       207       285         0.01
         1       207       268       208       268         0.01
         1       208       272       209       272         0.01
         1       257       594       258       594         0.01
         1       209       304       210       304         0.01
         1       208       294       209       294         0.01
         1       207       287       208       287         0.01
         1       206       284       207       284         0.01
         1       207       288       208       288         0.01
         1       208       271       209       271         0.01
         1       209       300       210       300         0.01
         1       203       270       204       270         0.01
         1       207       265       208       265         0.01
         1       207       265       207       264         0.01
         1        75        72        76        72        0.001
         1       206       264       207       264         0.01
         1       210       307       211       307         0.01
         1       257       601       258       601         0.01
         1       210       308       211       308         0.01
         1       202       267       203       267         0.01
         1       206       283       207       283         0.01
         1       209       275       210       275         0.01
         1       203       269       204       269         0.01
         1       206       263       207       263         0.01
         1       204       274       205       274         0.01
         1       202       266       203       266         0.01
         1       210       309       211       309         0.01
         1       203       268       204       268         0.01
         1       203       268       203       267         0.01
         1       207       266       208       266         0.01
         1       223       369       222       369         0.01
         1       209       276       210       276         0.01
         1       202       264       203       264         0.01
         1       206       262       207       262         0.01
         1       202       263       203       263         0.01
         1       202       263       202       262         0.01
         1       209       301       210       301         0.01
         1       207       267       208       267         0.01
         1        54        63        55        63     1.05e-07
         1        55        60        56        60     1.05e-07
         1        55        61        56        61     1.05e-07
         1        55        62        56        62     1.05e-07
         1        55        62        55        63     1.05e-07
         1        58        57        59        57      0.00105
         1        58        58        59        58      0.00105
         1        59        56        60        56      0.00105
         1        59        56        59        57      0.00105
         1        72        70        73        70     1.05e-09
         1        72        71        73        71     1.05e-09
         1        72        72        73        72     1.05e-09
         1        72        73        73        73     1.05e-09
         1        75        74        76        74     0.001103
         1        76        76        77        76        0.001
         1        76        77        77        77        0.001
         1        78        77        78        78        0.001
         1        78        78        79        78        0.001
         1        80        80        81        80        0.001
         1        80        81        81        81        0.001
         1        80        82        81        82        0.001
         1        80        83        81        83        0.001
         1        81        81        82        81        0.001
         1        81        82        82        82        0.001
         1        81        83        82        83        0.001
         1        81        84        81        83        0.001
         1        82        80        83        80        0.001
         1        82        80        82        81        0.001
         1        84        82        84        83        0.001
         1        84        83        85        83        0.001
         1        84        84        85        84        0.001
         1       148       245       149       245      0.00105
         1       148       246       149       246      0.00105
         1       148       247       149       247      0.00105
         1       149       247       149       248      0.00105
         1       149       248       150       248      0.00105
         1       149       249       150       249      0.00105
         1       150       249       150       250      0.00105
         1       150       250       151       250      0.00105
         1       150       251       151       251      0.00105
         1       151       253       152       253      0.00105
         1       152       253       152       254      0.00105
         1       152       254       153       254      0.00105
         1       153       254       153       255      0.00105
         1       153       255       154       255      0.00105
         1       153       256       154       256      0.00105
         1       153       257       154       257      0.00105
         1       154       257       154       258      0.00105
         1       154       258       155       258      0.00105
         1       154       259       155       259      0.00105
         1       154       260       155       260      0.00105
         1       155       260       155       261      0.00105
         1       211       316       211       317      0.00105
         1       211       317       212       317      0.00105
         1       211       318       212       318      0.00105
         1       211       319       212       319      0.00105
         1       211       320       212       320      0.00105
         1       211       321       212       321      0.00105
         1       211       322       212       322      0.00105
         1       212       322       212       323      0.00105
         1       212       323       213       323      0.00105
         1       212       324       213       324      0.00105
         1       212       325       213       325      0.00105
         1       212       326       213       326      0.00105
         1       212       327       213       327      0.00105
         1       213       327       213       328      0.00105
         1       213       328       214       328      0.00105
         1       213       329       214       329      0.00105
         1       215       330       216       330        0.105
         1       215       331       216       331      0.00105
         1       215       332       216       332      0.00105
         1       215       333       216       333      0.00105
         1       215       334       216       334      0.00105
         1       215       335       216       335      0.00105
         1       215       336       216       336      0.00105
         1       215       337       216       337      0.00105
         1       215       338       216       338      0.00105
         1       215       339       216       339      0.00105
         1       215       348       216       348         0.01
         1       215       349       216       349         0.01
         1       215       350       216       350         0.01
         1       215       351       216       351         0.01
         1       215       352       216       352         0.01
         1       215       353       216       353         0.01
         1       216       339       216       340      0.00105
         1       216       340       217       340         0.01
         1       216       341       217       341         0.01
         1       216       342       217       342         0.01
         1       216       343       217       343         0.01
         1       216       344       217       344         0.01
         1       216       345       217       345         0.01
         1       216       346       217       346         0.01
         1       216       347       217       347         0.01
         1       216       347       216       348         0.01
         1       216       353       217       353         0.01
         1       216       354       217       354      0.00105
         1       216       355       217       355      0.00105
         1       216       356       217       356      0.00105
         1       216       357       217       357      0.00105
         1       216       358       217       358      0.00105
         1       217       358       217       359      0.00105
         1       217       359       218       359      0.00105
         1       217       360       218       360      0.00105
         1       218       360       218       361      0.00105
         1       218       361       219       361      0.00105
         1       218       362       219       362      0.00105
         1       218       363       219       363      0.00105
         1       219       363       219       364      0.00105
         1       219       364       220       364      0.00105
         1       219       365       220       365      0.00105
         1       219       366       220       366      0.00105
         1       220       366       220       367      0.00105
         1       220       367       221       367      0.00105
         1       220       368       221       368      0.00105
         1       221       368       221       369      0.00105
         1       221       369       222       369      0.00105
         1       221       370       222       370      0.00105
         1       221       371       222       371      0.00105
         1       222       371       222       372      0.00105
         1       222       373       223       373      0.00105
         1       222       374       223       374      0.00105
         1       223       374       223       375      0.00105
         1       223       375       224       375      0.00105
         1       223       376       224       376      0.00105
         1       223       377       224       377      0.00105
         1       223       378       224       378      0.00105
         1       223       379       224       379      0.00105
         1       223       380       224       380      0.00105
         1       224       380       224       381      0.00105
         1       256       509       257       509       0.0105
         1       256       510       257       510       0.0105
         1       256       511       257       511       0.0105
         1       256       512       257       512       0.0105
         1       256       518       257       518       0.0105
         1       256       518       257       518       0.0105
         1       256       519       257       519       0.0105
         1       256       519       257       519       0.0105
         1       256       520       257       520      0.00105
         1       256       520       257       520      0.00105
         1       256       521       257       521       0.0105
         1       256       521       257       521       0.0105
         1       256       522       257       522       0.0105
         1       256       523       257       523       0.0105
         1       257       512       257       513       0.0105
         1       257       513       258       513       0.0105
         1       257       514       258       514       0.0105
         1       257       515       258       515       0.0105
         1       257       516       258       516       0.0105
         1       257       525       258       525       0.0105
         1       257       526       258       526       0.0105
         1       257       527       258       527       0.0105
         1       258       527       258       528       0.0105
         1       258       528       259       528       0.0105
         1       258       529       259       529       0.0105
         1       258       530       259       530       0.0105
         1       258       589       259       589      0.00105
         1       258       590       259       590      0.00105
         1       258       591       259       591      0.00105
         1       258       592       259       592      0.00105
         1       258       593       259       593      0.00105
         1       259       532       260       532       0.0105
         1       259       533       260       533       0.0105
         1       259       534       260       534       0.0105
         1       259       586       260       586      0.00105
         1       259       587       260       587      0.00105
         1       259       588       260       588      0.00105
         1       260       534       260       535        0.105
         1       260       535       261       535       0.0105
         1       260       536       261       536       0.0105
         1       260       537       261       537       0.0105
         1       260       538       261       538       0.0105
         1       260       539       261       539       0.0105
         1       260       540       261       540       0.0105
         1       260       583       261       583      0.00105
         1       260       584       261       584      0.00105
         1       260       585       261       585      0.00105
         1       260       585       260       586      0.00105
         1       261       542       262       542      0.00105
         1       261       543       262       543      0.00105
         1       261       544       262       544      0.00105
         1       261       545       262       545      0.00105
         1       261       546       262       546      0.00105
         1       261       547       262       547      0.00105
         1       261       548       262       548      0.00105
         1       261       549       262       549      0.00105
         1       261       575       262       575      0.00105
         1       261       576       262       576      0.00105
         1       261       577       262       577      0.00105
         1       261       578       262       578      0.00105
         1       261       579       262       579      0.00105
         1       261       580       262       580      0.00105
         1       261       581       262       581      0.00105
         1       261       582       262       582      0.00105
         1       261       582       261       583      0.00105
         1       262       549       262       550      0.00105
         1       262       550       263       550      0.00105
         1       262       551       263       551      0.00105
         1       262       553       263       553      0.00105
         1       262       559       263       559      0.00105
         1       262       560       263       560      0.00105
         1       262       562       263       562      0.00105
         1       262       563       263       563      0.00105
         1       262       564       263       564      0.00105
         1       262       565       263       565      0.00105
         1       262       566       263       566      0.00105
         1       262       567       263       567      0.00105
         1       262       568       263       568      0.00105
         1       262       569       263       569      0.00105
         1       262       569       263       569      0.00105
         1       262       570       263       570      0.00105
         1       262       571       263       571      0.00105
         1       262       572       263       572      0.00105
         1       262       573       263       573      0.00105
         1       262       574       263       574      0.00105
         1       262       574       262       575      0.00105
         1       263       553       263       554      0.00105
         1       263       554       264       554      0.00105
         1       263       554       264       554      0.00105
         1       263       556       264       556      0.00105
         1       263       556       264       556      0.00105
         1       263       557       264       557      0.00105
         1       263       557       264       557      0.00105
         1       263       558       264       558      0.00105
         1       263       558       263       559      0.00105
         1        79        79        80        79        0.001
         1        79        79        79        78        0.001
         1        80        79        80        80        0.001
         1        77        78        77        77        0.001
         1        76        75        77        75        0.001
         1        76        75        76        74        0.001
         1        75        71        76        71         0.01
         1        75        71        75        70         0.01
         1        74        70        75        70         0.01
         1        74        69        75        69         0.01
         1        74        68        75        68         0.01
         1        74        68        74        67         0.01
         1        73        67        74        67         0.01
         1        73        67        73        66         0.01
         1        72        66        73        66         0.01
         1        72        66        72        65         0.01
         1        71        66        71        65         0.01
         1        70        66        70        65         0.01
         1        69        65        70        65         0.01
         1        69        65        69        64         0.01
         1        68        64        69        64         0.01
         1        68        64        68        63         0.01
         1        67        63        68        63         0.01
         1        67        62        68        62         0.01
         1        67        62        67        61         0.01
         1        66        61        67        61         0.01
         1        66        60        67        60         0.01
         1        66        60        66        59         0.01
         1        65        59        66        59         0.01
         1        65        59        65        58         0.01
         1        64        58        65        58         0.01
         1        64        58        64        57         0.01
         1        63        58        63        57         0.01
         1        62        58        62        57         0.01
         1        61        57        62        57         0.01
         1        61        57        61        56         0.01
         1        60        56        61        56         0.01
         1        60        56        60        55         0.01
         1        83        80        84        80        0.001
         1        83        80        83        79        0.001
         1        83        81        84        81        0.001
         1        83        82        84        82        0.001
         1        51        69        52        69        1e-07
         1        51        70        52        70        1e-07
         1        51        71        52        71        1e-07
         1        50        72        51        72        1e-07
         1        50        73        51        73        1e-07
         1        50        74        51        74        1e-07
         1        49        75        50        75        1e-07
         1        49        76        50        76        1e-07
         1        49        77        50        77        1e-07
         1        48        78        49        78        0.001
         1        48        79        49        79        0.001
         1        48        80        49        80        0.001
         1        47        81        48        81        0.001
         1        47        82        48        82        0.001
         1        47        83        48        83        0.001
         1        46        84        47        84         0.01
         1        46        85        47        85         0.01
         1        43        93        44        93        0.001
         1        43        94        44        94        0.001
         1        43        95        44        95        0.001
         1        42        96        43        96        0.001
         1        42        97        43        97        0.001
         1        42        98        43        98        0.001
         1        41        99        42        99        0.001
         1        41       100        42       100        0.001
         1        41       101        42       101        0.001
         1        40       102        41       102        0.001
         1        40       103        41       103        0.001
         1        40       104        41       104        0.001
         1        39       105        40       105        0.001
         1        39       106        40       106        0.001
         1        39       107        40       107        0.001
         1        38       108        39       108        0.001
         1        38       109        39       109        0.001