# DIS package for  MODFLOW-2000, generated by Flopy.
         1       370       700       144         4         1
  0
OPEN/CLOSE                    ref\delr.ref               1 (700E15.6) -1 delr                          
OPEN/CLOSE                    ref\delc.ref               1 (370E15.6) -1 delc                          
OPEN/CLOSE               ref\model_top.ref               1     (FREE) -1 model_top                     
OPEN/CLOSE            ref\botm_layer_1.ref               1     (FREE) -1 botm_layer_0                  
     31.000000             1  1.000000  TR 
     28.000000             1  1.000000  TR 
     31.000000             1  1.000000  TR 
     30.000000             1  1.000000  TR 
     31.000000             1  1.000000  TR 
     30.000000             1  1.000000  TR 
     31.000000             1  1.000000  TR 
     31.000000             1  1.000000  TR 
     30.000000             1  1.000000  TR 
     31.000000             1  1.000000  TR 
     30.000000             1  1.000000  TR 
     31.000000             1  1.000000  TR 
     31.000000             1  1.000000  TR 
     28.000000             1  1.000000  TR 
     31.000000             1  1.000000  TR 
     30.000000             1  1.000000  TR 
     31.000000             1  1.000000  TR 
     30.000000             1  1.000000  TR 
     31.000000             1  1.000000  TR 
     31.000000             1  1.000000  TR 
     30.000000             1  1.000000  TR 
     31.000000             1  1.000000  TR 
     30.000000             1  1.000000  TR 
     31.000000             1  1.000000  TR 
     31.000000             1  1.000000  TR 
     28.000000             1  1.000000  TR 
     31.000000             1  1.000000  TR 
     30.000000             1  1.000000  TR 
     31.000000             1  1.000000  TR 
     30.000000             1  1.000000  TR 
     31.000000             1  1.000000  TR 
     31.000000             1  1.000000  TR 
     30.000000             1  1.000000  TR 
     31.000000             1  1.000000  TR 
     30.000000             1  1.000000  TR 
     31.000000             1  1.000000  TR 
     31.000000             1  1.000000  TR 
     28.000000             1  1.000000  TR 
     31.000000             1  1.000000  TR 
     30.000000             1  1.000000  TR 
     31.000000             1  1.000000  TR 
     30.000000             1  1.000000  TR 
     31.000000             1  1.000000  TR 
     31.000000             1  1.000000  TR 
     30.000000             1  1.000000  TR 
     31.000000             1  1.000000  TR 
     30.000000             1  1.000000  TR 
     31.000000             1  1.000000  TR 
     31.000000             1  1.000000  TR 
     28.000000             1  1.000000  TR 
     31.000000             1  1.000000  TR 
     30.000000             1  1.000000  TR 
     31.000000             1  1.000000  TR 
     30.000000             1  1.000000  TR 
     31.000000             1  1.000000  TR 
     31.000000             1  1.000000  TR 
     30.000000             1  1.000000  TR 
     31.000000             1  1.000000  TR 
     30.000000             1  1.000000  TR 
     31.000000             1  1.000000  TR 
     31.000000             1  1.000000  TR 
     28.000000             1  1.000000  TR 
     31.000000             1  1.000000  TR 
     30.000000             1  1.000000  TR 
     31.000000             1  1.000000  TR 
     30.000000             1  1.000000  TR 
     31.000000             1  1.000000  TR 
     31.000000             1  1.000000  TR 
     30.000000             1  1.000000  TR 
     31.000000             1  1.000000  TR 
     30.000000             1  1.000000  TR 
     31.000000             1  1.000000  TR 
     31.000000             1  1.000000  TR 
     28.000000             1  1.000000  TR 
     31.000000             1  1.000000  TR 
     30.000000             1  1.000000  TR 
     31.000000             1  1.000000  TR 
     30.000000             1  1.000000  TR 
     31.000000             1  1.000000  TR 
     31.000000             1  1.000000  TR 
     30.000000             1  1.000000  TR 
     31.000000             1  1.000000  TR 
     30.000000             1  1.000000  TR 
     31.000000             1  1.000000  TR 
     31.000000             1  1.000000  TR 
     28.000000             1  1.000000  TR 
     31.000000             1  1.000000  TR 
     30.000000             1  1.000000  TR 
     31.000000             1  1.000000  TR 
     30.000000             1  1.000000  TR 
     31.000000             1  1.000000  TR 
     31.000000             1  1.000000  TR 
     30.000000             1  1.000000  TR 
     31.000000             1  1.000000  TR 
     30.000000             1  1.000000  TR 
     31.000000             1  1.000000  TR 
     31.000000             1  1.000000  TR 
     28.000000             1  1.000000  TR 
     31.000000             1  1.000000  TR 
     30.000000             1  1.000000  TR 
     31.000000             1  1.000000  TR 
     30.000000             1  1.000000  TR 
     31.000000             1  1.000000  TR 
     31.000000             1  1.000000  TR 
     30.000000             1  1.000000  TR 
     31.000000             1  1.000000  TR 
     30.000000             1  1.000000  TR 
     31.000000             1  1.000000  TR 
     31.000000             1  1.000000  TR 
     28.000000             1  1.000000  TR 
     31.000000             1  1.000000  TR 
     30.000000             1  1.000000  TR 
     31.000000             1  1.000000  TR 
     30.000000             1  1.000000  TR 
     31.000000             1  1.000000  TR 
     31.000000             1  1.000000  TR 
     30.000000             1  1.000000  TR 
     31.000000             1  1.000000  TR 
     30.000000             1  1.000000  TR 
     31.000000             1  1.000000  TR 
     31.000000             1  1.000000  TR 
     28.000000             1  1.000000  TR 
     31.000000             1  1.000000  TR 
     30.000000             1  1.000000  TR 
     31.000000             1  1.000000  TR 
     30.000000             1  1.000000  TR 
     31.000000             1  1.000000  TR 
     31.000000             1  1.000000  TR 
     30.000000             1  1.000000  TR 
     31.000000             1  1.000000  TR 
     30.000000             1  1.000000  TR 
     31.000000             1  1.000000  TR 
     31.000000             1  1.000000  TR 
     28.000000             1  1.000000  TR 
     31.000000             1  1.000000  TR 
     30.000000             1  1.000000  TR 
     31.000000             1  1.000000  TR 
     30.000000             1  1.000000  TR 
     31.000000             1  1.000000  TR 
     31.000000             1  1.000000  TR 
     30.000000             1  1.000000  TR 
     31.000000             1  1.000000  TR 
     30.000000             1  1.000000  TR 
     31.000000             1  1.000000  TR 
