# WEL package for  MODFLOW-2000, generated by Flopy.
      6376         0
      6238         0 # stress period 1
         open/close ref\WEL_0000.dat
      6238         0 # stress period 2
         open/close ref\WEL_0001.dat
      6238         0 # stress period 3
         open/close ref\WEL_0002.dat
      6238         0 # stress period 4
         open/close ref\WEL_0003.dat
      6238         0 # stress period 5
         open/close ref\WEL_0004.dat
      6238         0 # stress period 6
         open/close ref\WEL_0005.dat
      6238         0 # stress period 7
         open/close ref\WEL_0006.dat
      6238         0 # stress period 8
         open/close ref\WEL_0007.dat
      6238         0 # stress period 9
         open/close ref\WEL_0008.dat
      6238         0 # stress period 10
         open/close ref\WEL_0009.dat
      6238         0 # stress period 11
         open/close ref\WEL_0010.dat
      6238         0 # stress period 12
         open/close ref\WEL_0011.dat
      6251         0 # stress period 13
         open/close ref\WEL_0012.dat
      6251         0 # stress period 14
         open/close ref\WEL_0013.dat
      6251         0 # stress period 15
         open/close ref\WEL_0014.dat
      6251         0 # stress period 16
         open/close ref\WEL_0015.dat
      6251         0 # stress period 17
         open/close ref\WEL_0016.dat
      6251         0 # stress period 18
         open/close ref\WEL_0017.dat
      6251         0 # stress period 19
         open/close ref\WEL_0018.dat
      6251         0 # stress period 20
         open/close ref\WEL_0019.dat
      6251         0 # stress period 21
         open/close ref\WEL_0020.dat
      6251         0 # stress period 22
         open/close ref\WEL_0021.dat
      6251         0 # stress period 23
         open/close ref\WEL_0022.dat
      6251         0 # stress period 24
         open/close ref\WEL_0023.dat
      6257         0 # stress period 25
         open/close ref\WEL_0024.dat
      6257         0 # stress period 26
         open/close ref\WEL_0025.dat
      6257         0 # stress period 27
         open/close ref\WEL_0026.dat
      6257         0 # stress period 28
         open/close ref\WEL_0027.dat
      6257         0 # stress period 29
         open/close ref\WEL_0028.dat
      6257         0 # stress period 30
         open/close ref\WEL_0029.dat
      6257         0 # stress period 31
         open/close ref\WEL_0030.dat
      6257         0 # stress period 32
         open/close ref\WEL_0031.dat
      6257         0 # stress period 33
         open/close ref\WEL_0032.dat
      6257         0 # stress period 34
         open/close ref\WEL_0033.dat
      6257         0 # stress period 35
         open/close ref\WEL_0034.dat
      6257         0 # stress period 36
         open/close ref\WEL_0035.dat
      6272         0 # stress period 37
         open/close ref\WEL_0036.dat
      6272         0 # stress period 38
         open/close ref\WEL_0037.dat
      6272         0 # stress period 39
         open/close ref\WEL_0038.dat
      6272         0 # stress period 40
         open/close ref\WEL_0039.dat
      6272         0 # stress period 41
         open/close ref\WEL_0040.dat
      6272         0 # stress period 42
         open/close ref\WEL_0041.dat
      6272         0 # stress period 43
         open/close ref\WEL_0042.dat
      6272         0 # stress period 44
         open/close ref\WEL_0043.dat
      6272         0 # stress period 45
         open/close ref\WEL_0044.dat
      6272         0 # stress period 46
         open/close ref\WEL_0045.dat
      6272         0 # stress period 47
         open/close ref\WEL_0046.dat
      6272         0 # stress period 48
         open/close ref\WEL_0047.dat
      6281         0 # stress period 49
         open/close ref\WEL_0048.dat
      6281         0 # stress period 50
         open/close ref\WEL_0049.dat
      6281         0 # stress period 51
         open/close ref\WEL_0050.dat
      6281         0 # stress period 52
         open/close ref\WEL_0051.dat
      6281         0 # stress period 53
         open/close ref\WEL_0052.dat
      6281         0 # stress period 54
         open/close ref\WEL_0053.dat
      6281         0 # stress period 55
         open/close ref\WEL_0054.dat
      6281         0 # stress period 56
         open/close ref\WEL_0055.dat
      6281         0 # stress period 57
         open/close ref\WEL_0056.dat
      6281         0 # stress period 58
         open/close ref\WEL_0057.dat
      6281         0 # stress period 59
         open/close ref\WEL_0058.dat
      6281         0 # stress period 60
         open/close ref\WEL_0059.dat
      6293         0 # stress period 61
         open/close ref\WEL_0060.dat
      6293         0 # stress period 62
         open/close ref\WEL_0061.dat
      6293         0 # stress period 63
         open/close ref\WEL_0062.dat
      6293         0 # stress period 64
         open/close ref\WEL_0063.dat
      6293         0 # stress period 65
         open/close ref\WEL_0064.dat
      6293         0 # stress period 66
         open/close ref\WEL_0065.dat
      6293         0 # stress period 67
         open/close ref\WEL_0066.dat
      6293         0 # stress period 68
         open/close ref\WEL_0067.dat
      6293         0 # stress period 69
         open/close ref\WEL_0068.dat
      6293         0 # stress period 70
         open/close ref\WEL_0069.dat
      6293         0 # stress period 71
         open/close ref\WEL_0070.dat
      6293         0 # stress period 72
         open/close ref\WEL_0071.dat
      6307         0 # stress period 73
         open/close ref\WEL_0072.dat
      6307         0 # stress period 74
         open/close ref\WEL_0073.dat
      6307         0 # stress period 75
         open/close ref\WEL_0074.dat
      6307         0 # stress period 76
         open/close ref\WEL_0075.dat
      6307         0 # stress period 77
         open/close ref\WEL_0076.dat
      6307         0 # stress period 78
         open/close ref\WEL_0077.dat
      6307         0 # stress period 79
         open/close ref\WEL_0078.dat
      6307         0 # stress period 80
         open/close ref\WEL_0079.dat
      6307         0 # stress period 81
         open/close ref\WEL_0080.dat
      6307         0 # stress period 82
         open/close ref\WEL_0081.dat
      6307         0 # stress period 83
         open/close ref\WEL_0082.dat
      6307         0 # stress period 84
         open/close ref\WEL_0083.dat
      6320         0 # stress period 85
         open/close ref\WEL_0084.dat
      6320         0 # stress period 86
         open/close ref\WEL_0085.dat
      6320         0 # stress period 87
         open/close ref\WEL_0086.dat
      6320         0 # stress period 88
         open/close ref\WEL_0087.dat
      6320         0 # stress period 89
         open/close ref\WEL_0088.dat
      6320         0 # stress period 90
         open/close ref\WEL_0089.dat
      6320         0 # stress period 91
         open/close ref\WEL_0090.dat
      6320         0 # stress period 92
         open/close ref\WEL_0091.dat
      6320         0 # stress period 93
         open/close ref\WEL_0092.dat
      6320         0 # stress period 94
         open/close ref\WEL_0093.dat
      6320         0 # stress period 95
         open/close ref\WEL_0094.dat
      6320         0 # stress period 96
         open/close ref\WEL_0095.dat
      6338         0 # stress period 97
         open/close ref\WEL_0096.dat
      6338         0 # stress period 98
         open/close ref\WEL_0097.dat
      6338         0 # stress period 99
         open/close ref\WEL_0098.dat
      6338         0 # stress period 100
         open/close ref\WEL_0099.dat
      6338         0 # stress period 101
         open/close ref\WEL_0100.dat
      6338         0 # stress period 102
         open/close ref\WEL_0101.dat
      6338         0 # stress period 103
         open/close ref\WEL_0102.dat
      6338         0 # stress period 104
         open/close ref\WEL_0103.dat
      6338         0 # stress period 105
         open/close ref\WEL_0104.dat
      6338         0 # stress period 106
         open/close ref\WEL_0105.dat
      6338         0 # stress period 107
         open/close ref\WEL_0106.dat
      6338         0 # stress period 108
         open/close ref\WEL_0107.dat
      6353         0 # stress period 109
         open/close ref\WEL_0108.dat
      6353         0 # stress period 110
         open/close ref\WEL_0109.dat
      6353         0 # stress period 111
         open/close ref\WEL_0110.dat
      6353         0 # stress period 112
         open/close ref\WEL_0111.dat
      6353         0 # stress period 113
         open/close ref\WEL_0112.dat
      6353         0 # stress period 114
         open/close ref\WEL_0113.dat
      6353         0 # stress period 115
         open/close ref\WEL_0114.dat
      6353         0 # stress period 116
         open/close ref\WEL_0115.dat
      6353         0 # stress period 117
         open/close ref\WEL_0116.dat
      6353         0 # stress period 118
         open/close ref\WEL_0117.dat
      6353         0 # stress period 119
         open/close ref\WEL_0118.dat
      6353         0 # stress period 120
         open/close ref\WEL_0119.dat
      6370         0 # stress period 121
         open/close ref\WEL_0120.dat
      6370         0 # stress period 122
         open/close ref\WEL_0121.dat
      6370         0 # stress period 123
         open/close ref\WEL_0122.dat
      6370         0 # stress period 124
         open/close ref\WEL_0123.dat
      6370         0 # stress period 125
         open/close ref\WEL_0124.dat
      6370         0 # stress period 126
         open/close ref\WEL_0125.dat
      6370         0 # stress period 127
         open/close ref\WEL_0126.dat
      6370         0 # stress period 128
         open/close ref\WEL_0127.dat
      6370         0 # stress period 129
         open/close ref\WEL_0128.dat
      6370         0 # stress period 130
         open/close ref\WEL_0129.dat
      6370         0 # stress period 131
         open/close ref\WEL_0130.dat
      6370         0 # stress period 132
         open/close ref\WEL_0131.dat
      6376         0 # stress period 133
         open/close ref\WEL_0132.dat
      6376         0 # stress period 134
         open/close ref\WEL_0133.dat
      6376         0 # stress period 135
         open/close ref\WEL_0134.dat
      6376         0 # stress period 136
         open/close ref\WEL_0135.dat
      6376         0 # stress period 137
         open/close ref\WEL_0136.dat
      6376         0 # stress period 138
         open/close ref\WEL_0137.dat
      6376         0 # stress period 139
         open/close ref\WEL_0138.dat
      6376         0 # stress period 140
         open/close ref\WEL_0139.dat
      6376         0 # stress period 141
         open/close ref\WEL_0140.dat
      6376         0 # stress period 142
         open/close ref\WEL_0141.dat
      6376         0 # stress period 143
         open/close ref\WEL_0142.dat
      6376         0 # stress period 144
         open/close ref\WEL_0143.dat
