# BAS6 package for  MODFLOW-2005, generated by Flopy.
 FREE STOPERROR 10
OPEN/CLOSE          ref\ibound_layer_1.ref               1   (700I10) -1 ibound_layer_0                
          1E+30
OPEN/CLOSE            ref\strt_layer_1.ref               1 (700E15.6) -1 strt_layer_0                  
