# HFB6 package for  MODFLOW-2000, generated by Flopy.
         0         0      3379
         1       216       321       217       321           10
         1       216       319       217       319        1e-09
         1       215       309       216       309        1e-09
         1       216       315       217       315        1e-09
         1       216       315       216       314        1e-09
         1       216       316       217       316        1e-09
         1       215       307       216       307        1e-09
         1       215       307       215       306        1e-09
         1       216       318       217       318        1e-09
         1       216       317       217       317        1e-09
         1       215       325       216       325        1e-09
         1       215       324       216       324        1e-09
         1       215       314       216       314        1e-09
         1       215       313       216       313        1e-09
         1       214       306       215       306        1e-09
         1       215       308       216       308        1e-09
         1       214       305       215       305        1e-09
         1       215       312       216       312        1e-09
         1       215       326       216       326        1e-09
         1       215       327       216       327        1e-09
         1       215       328       216       328        1e-09
         1       215       310       216       310        1e-09
         1       216       323       217       323        1e-09
         1       216       323       216       324        1e-09
         1       215       311       216       311        1e-09
         1       214       300       215       300        1e-09
         1       214       300       214       299        1e-09
         1       215       329       216       329        1e-09
         1       214       301       215       301        1e-09
         1       213       299       214       299        1e-09
         1       216       322       217       322        1e-09
         1       268       549       269       549        1e-09
         1       268       549       269       549        1e-09
         1       268       549       269       549        1e-09
         1       269       548       269       549         0.01
         1       213       298       214       298        1e-09
         1       226       383       226       382        1e-09
         1       225       382       226       382        1e-09
         1       213       297       214       297        1e-09
         1       216       320       217       320        1e-09
         1       277       384       278       384        1e-09
         1       278       382       279       382        1e-09
         1       278       382       278       383        1e-09
         1       277       383       278       383        1e-09
         1       225       381       226       381        1e-09
         1       214       302       215       302        1e-09
         1       278       357       279       357        1e-09
         1       278       358       279       358        1e-09
         1       278       355       279       355        1e-09
         1       278       356       279       356        1e-09
         1       278       359       279       359        1e-09
         1       278       381       279       381        1e-09
         1       214       304       215       304        1e-09
         1       278       377       279       377        1e-09
         1       278       354       279       354        1e-09
         1       271       482       272       482        1e-09
         1       271       482       272       482        1e-09
         1       213       293       214       293        1e-09
         1       277       385       278       385        1e-09
         1       278       360       279       360        1e-09
         1       182       237       183       237        1e-09
         1       182       237       182       236        1e-09
         1       278       362       279       362        1e-09
         1       278       380       279       380        1e-09
         1       278       361       279       361        1e-09
         1       278       363       279       363        1e-09
         1       255       609       256       609        1e-09
         1       278       353       279       353        1e-09
         1       182       238       183       238        1e-09
         1       213       292       214       292        1e-09
         1       213       292       213       291        1e-09
         1       268       555       269       555         0.01
         1       268       555       268       556         0.01
         1       307       441       308       441        1e-09
         1       278       366       279       366        1e-09
         1       278       376       279       376        1e-09
         1       278       367       279       367        1e-09
         1       184       244       185       244        1e-09
         1       185       245       185       244        1e-09
         1       213       294       214       294        1e-09
         1       306       432       307       432        1e-09
         1       278       352       279       352        1e-09
         1       277       341       278       341        1e-09
         1       278       373       279       373        1e-09
         1       278       378       279       378        1e-09
         1       278       379       279       379        1e-09
         1       307       440       308       440        1e-09
         1       278       368       279       368        1e-09
         1       306       431       307       431        1e-09
         1       212       291       213       291        1e-09
         1       306       433       307       433        1e-09
         1       278       369       279       369        1e-09
         1       278       370       279       370        1e-09
         1       274       435       273       435        1e-09
         1       307       442       308       442        1e-09
         1       278       372       279       372        1e-09
         1       306       430       307       430        1e-09
         1       268       554       269       554         0.01
         1       277       430       277       429        1e-09
         1       266       560       267       560        1e-09
         1       183       241       184       241        1e-09
         1       278       351       279       351        1e-09
         1       278       371       279       371        1e-09
         1       214       303       215       303        1e-09
         1       266       559       267       559        1e-09
         1       183       240       184       240        1e-09
         1       277       386       278       386        1e-09
         1       277       337       276       337        1e-09
         1       278       429       277       429        1e-09
         1       306       429       307       429        1e-09
         1       212       290       213       290        1e-09
         1       274       436       273       436        1e-09
         1       277       336       276       336        1e-08
         1       307       439       308       439        1e-08
         1       277       388       278       388        1e-08
         1       266       563       267       563        1e-08
         1       278       374       279       374        1e-08
         1       278       375       279       375        1e-08
         1       181       236       182       236        1e-08
         1       271       486       272       486        1e-08
         1       181       234       182       234        1e-08
         1       181       234       181       233        1e-08
         1       266       561       267       561        1e-08
         1       184       243       185       243        1e-08
         1       277       340       278       340        1e-08
         1       274       439       273       439        1e-08
         1       306       428       307       428        1e-08
         1       306       434       307       434        1e-08
         1       274       437       273       437        1e-08
         1       271       485       272       485        1e-08
         1       274       438       273       438        1e-08
         1       282       390       281       390        1e-08
         1       277       335       276       335        1e-08
         1       266       564       267       564        1e-08
         1       266       564       266       565        1e-08
         1       276       332       277       332        1e-08
         1       306       435       307       435        1e-08
         1       271       484       272       484        1e-08
         1       180       233       181       233        1e-08
         1       276       334       277       334        1e-08
         1       277       338       276       338        1e-08
         1       271       483       272       483        1e-08
         1       277       430       276       430        1e-08
         1       276       333       277       333        1e-08
         1       259       383       260       383        1e-08
         1       259       383       259       382        1e-08
         1       259       383       259       382        1e-08
         1       306       436       307       436        1e-08
         1       274       440       273       440        1e-08
         1       282       389       281       389        1e-08
         1       180       232       181       232        1e-08
         1       180       232       180       231        1e-08
         1       307       437       308       437        1e-08
         1       307       437       307       436        1e-08
         1       318       427       317       427        1e-08
         1       307       443       308       443        1e-08
         1       265       565       266       565        1e-08
         1       181       235       182       235        1e-08
         1       277       389       278       389        1e-08
         1       307       438       308       438        1e-08
         1       277       390       278       390        1e-08
         1       267       556       268       556         0.01
         1       282       391       281       391        1e-08
         1       276       432       275       432        1e-08
         1       213       295       214       295        1e-08
         1       212       289       213       289        1e-08
         1       212       287       213       287        1e-08
         1       276       328       277       328        1e-08
         1       276       328       276       327        1e-08
         1       258       337       259       337         0.01
         1       311       385       311       386        1e-08
         1       308       423       309       423        1e-08
         1       276       329       277       329        1e-08
         1       185       247       186       247        1e-08
         1       312       389       312       390        1e-08
         1       308       424       309       424        1e-08
         1       186       248       187       248        1e-08
         1       186       248       186       247        1e-08
         1       212       286       213       286        1e-08
         1       212       286       212       285        1e-08
         1       259       338       259       337        1e-08
         1       282       388       281       388        1e-08
         1       212       288       213       288        1e-08
         1       159       165       160       165        1e-08
         1       318       426       317       426        1e-08
         1       277       339       276       339        1e-08
         1       277       339       277       340        1e-08
         1       282       387       282       386        1e-08
         1       266       562       267       562        1e-08
         1       277       391       278       391        1e-08
         1       256       329       256       330         0.01
         1       278       425       277       425        1e-08
         1       278       426       277       426        1e-08
         1       258       382       259       382        1e-08
         1       258       382       259       382        1e-08
         1       258       334       257       334         0.01
         1       258       334       258       335         0.01
         1       278       424       279       424        1e-08
         1       278       424       278       425        1e-08
         1       277       387       278       387        1e-08
         1       275       322       276       322        1e-08
         1       275       322       275       321        1e-08
         1       275       326       276       326        1e-08
         1       160       161       161       161        1e-08
         1       160       161       160       162        1e-08
         1       186       250       187       250        1e-08
         1       307       444       308       444        1e-08
         1       187       251       187       250        1e-08
         1       275       327       276       327        1e-08
         1       318       425       317       425        1e-08
         1       275       323       276       323        1e-08
         1       314       412       315       412        1e-08
         1       256       175       257       175        1e-08
         1       257       332       256       332         0.01
         1       257       332       257       333         0.01
         1       318       424       317       424        1e-08
         1       268       550       269       550        1e-08
         1       268       550       269       550        1e-08
         1       257       604       258       604        1e-08
         1       317       423       317       424        1e-08
         1       257       331       256       331         0.01
         1       185       245       186       245        1e-08
         1       308       452       309       452        1e-08
         1       307       425       308       425        1e-08
         1       274       321       275       321        1e-08
         1       263       579       264       579        1e-08
         1       313       414       314       414        1e-08
         1       312       386       311       386        1e-08
         1       307       451       308       451        1e-08
         1       256       330       257       330         0.01
         1       256       174       257       174        1e-05
         1       282       387       281       387        1e-05
         1       263       580       264       580        1e-05
         1       258       381       259       381        1e-05
         1       258       381       259       381        1e-05
         1       311       382       310       382        1e-05
         1       311       381       310       381        1e-05
         1       257       605       258       605        1e-05
         1       256       178       257       178        1e-05
         1       222       354       223       354        1e-05
         1       222       354       223       354        1e-05
         1       312       389       311       389        1e-05
         1       308       453       309       453        1e-05
         1       307       450       308       450        1e-05
         1       308       424       308       425        1e-05
         1       307       445       308       445        1e-05
         1       314       413       315       413        1e-05
         1       314       413       314       414        1e-05
         1       308       452       308       451        1e-05
         1       311       380       310       380        1e-05
         1       159       164       160       164        1e-05
         1       264       577       265       577        1e-05
         1       311       378       310       378        1e-05
         1       311       379       310       379        1e-05
         1       257       333       258       333           10
         1       255       168       256       168        1e-05
         1       310       420       311       420        1e-05
         1       310       420       310       421        1e-05
         1       255       171       256       171        1e-05
         1       318       428       317       428        1e-05
         1       277       396       278       396        1e-05
         1       263       581       264       581        1e-05
         1       312       416       313       416        1e-05
         1       277       393       278       393        1e-05
         1       257       181       258       181        1e-05
         1       222       353       223       353        1e-05
         1       259       384       260       384          100
         1       259       384       260       384        1e-05
         1       256       173       257       173        1e-05
         1       311       377       310       377        1e-05
         1       255       167       256       167        1e-05
         1       255       167       255       166        1e-05
         1       179       231       180       231        1e-05
         1       311       385       310       385        1e-05
         1       256       177       257       177        1e-05
         1       223       352       224       352        1e-05
         1       223       352       223       353        1e-05
         1       277       392       278       392        1e-05
         1       274       320       275       320        1e-05
         1       186       249       187       249        1e-05
         1       275       325       276       325        1e-05
         1       282       392       281       392        1e-05
         1       282       394       281       394        1e-05
         1       278       427       277       427        1e-05
         1       313       415       314       415        1e-05
         1       313       415       313       416        1e-05
         1       315       411       316       411        1e-05
         1       315       411       315       412        1e-05
         1       194       145       195       145        1e-05
         1       256       172       257       172        1e-05
         1       256       172       256       171        1e-05
         1       161       213       162       213        1e-05
         1       211       285       212       285        1e-05
         1       308       454       309       454        1e-05
         1       257       180       258       180        1e-05
         1       307       446       308       446        1e-05
         1       256       176       257       176        1e-05
         1       317       422       316       422        1e-05
         1       311       374       310       374        1e-05
         1       263       583       264       583        1e-05
         1       223       351       224       351        1e-05
         1       160       209       161       209        1e-05
         1       283       386       282       386        1e-05
         1       282       393       281       393        1e-05
         1       329       423       330       423        1e-05
         1       274       318       275       318        1e-05
         1       313       390       312       390        1e-05
         1       160       208       161       208        1e-05
         1       307       449       308       449        1e-05
         1       274       317       275       317        1e-05
         1       274       317       274       316        1e-05
         1       254       164       255       164        1e-05
         1       195       150       196       150        1e-05
         1       330       424       331       424        1e-05
         1       330       424       330       423        1e-05
         1       311       419       312       419        1e-05
         1       311       419       311       420        1e-05
         1       160       205       161       205          100
         1       253       162       254       162        1e-05
         1       311       418       312       418        1e-05
         1       311       376       310       376        1e-05
         1       317       423       316       423        1e-05
         1       317       421       316       421        1e-05
         1       277       395       278       395        1e-05
         1       177       135       178       135         0.01
         1       177       135       178       135         0.01
         1       308       455       309       455        1e-05
         1       310       473       311       473        1e-05
         1       194       144       195       144        1e-05
         1       260       341       261       341        1e-05
         1       260       341       260       340        1e-05
         1       255       170       256       170        1e-05
         1       211       284       212       284        1e-05
         1       311       375       310       375        1e-05
         1       277       394       278       394        1e-05
         1       307       447       308       447        1e-05
         1       178       136       179       136         0.01
         1       178       136       178       135         0.01
         1       258       335       259       335           10
         1       179       137       180       137         0.01
         1       179       137       179       136         0.01
         1       274       319       275       319        1e-05
         1       259       338       260       338        1e-05
         1       211       283       212       283        1e-05
         1       223       350       224       350        1e-05
         1       160       206       161       206        1e-05
         1       275       324       276       324        1e-05
         1       228       234       229       234        1e-05
         1       317       420       316       420        1e-05
         1       229       235       230       235        1e-05
         1       229       235       229       234        1e-05
         1       159       162       160       162        1e-05
         1       311       384       310       384        1e-05
         1       254       163       255       163        1e-05
         1       254       163       254       162        1e-05
         1       308       456       309       456        1e-05
         1       257       182       258       182        1e-05
         1       312       417       313       417        1e-05
         1       312       417       312       418        1e-05
         1       160       207       161       207        1e-05
         1       259       340       260       340        1e-05
         1       282       395       281       395        1e-05
         1       254       374       255       374        1e-05
         1       161       212       162       212        1e-05
         1       280       424       281       424        1e-05
         1       177       134       178       134         0.01
         1       179       229       180       229        1e-05
         1       130        81       131        81        1e-05
         1       130        81       130        80        1e-05
         1       159       203       160       203        1e-05
         1       308       457       309       457        1e-05
         1       161       210       162       210        1e-05
         1       161       210       161       209        1e-05
         1       229       236       230       236        1e-05
         1       255       169       256       169        1e-05
         1       324       391       325       391        1e-05
         1       324       391       324       390        1e-05
         1       311       373       310       373        1e-05
         1       195       146       196       146        1e-05
         1       195       146       195       145        1e-05
         1       318       430       317       430        1e-05
         1       278       428       277       428        1e-05
         1       307       448       308       448        1e-05
         1       195       149       196       149        1e-05
         1       308       458       309       458        1e-05
         1       177       133       178       133         0.01
         1       177       133       177       132         0.01
         1       273       316       274       316        1e-05
         1       159       204       160       204        1e-05
         1       162       214       163       214        1e-05
         1       162       214       162       213        1e-05
         1       318       431       317       431        1e-05
         1       318       433       317       433        1e-05
         1       318       433       318       434        1e-05
         1       311       383       310       383        1e-05
         1       194       284       193       284        1e-05
         1       257       184       258       184        1e-05
         1       268       551       269       551         0.01
         1       159       202       160       202        1e-05
         1       260       342       261       342        1e-05
         1       331       428       332       428        1e-05
         1       325       402       326       402        1e-05
         1       317       412       316       412        1e-05
         1       257       183       258       183        1e-05
         1       276       330       277       330        1e-05
         1       250       617       251       617        1e-05
         1       250       617       251       617        1e-05
         1       331       427       332       427        1e-05
         1       331       427       331       426        1e-05
         1       310       471       311       471        1e-05
         1       254       375       255       375        1e-05
         1       294       415       295       415        1e-05
         1       309       421       310       421        1e-05
         1       160       159       161       159        1e-05
         1       160       159       161       159        1e-05
         1       282       396       281       396        1e-05
         1       313       392       312       392        1e-05
         1       313       392       313       393        1e-05
         1       185       246       186       246        1e-05
         1       312       388       311       388        1e-05
         1       268       473       269       473        1e-05
         1       268       473       268       472        1e-05
         1       188       254       188       253        1e-05
         1       258       603       259       603        1e-05
         1       159       163       160       163        1e-05
         1       256       377       257       377        1e-05
         1       256       377       256       376        1e-05
         1       254       166       255       166        1e-05
         1       187       253       188       253        1e-05
         1       328       415       329       415        1e-05
         1       255       376       256       376        1e-05
         1       255       376       255       375        1e-05
         1       317       417       316       417        1e-05
         1       176       132       177       132           10
         1       317       413       316       413        1e-05
         1       272       492       273       492        1e-12
         1       228       233       229       233        1e-05
         1       317       414       316       414        1e-05
         1       211       282       212       282        1e-05
         1       211       282       211       281        1e-05
         1       194       283       193       283        1e-05
         1       266       557       265       557        1e-05
         1       266       557       266       556        1e-05
         1       225       380       225       379        1e-05
         1       179       230       180       230        1e-05
         1       325       401       326       401        1e-05
         1       265       566       266       566        1e-05
         1       228       231       229       231        1e-05
         1       228       232       229       232        1e-05
         1       294       414       295       414        1e-05
         1       283       414       283       413        1e-05
         1       283       385       282       385        1e-05
         1       254       323       255       323        1e-05
         1       257       185       258       185        1e-05
         1       270       433       271       433        1e-05
         1       317       415       316       415        1e-05
         1       309       422       310       422        1e-05
         1       309       422       309       423        1e-05
         1       253       159       254       159        1e-05
         1       253       159       253       158        1e-05
         1       319       434       318       434        1e-05
         1       162       215       163       215        1e-05
         1       226       218       227       218        1e-05
         1       328       417       329       417        1e-05
         1       308       459       309       459        1e-05
         1       163       217       164       217        1e-05
         1       294       416       295       416        1e-05