# DRN package for  MODFLOW-2000, generated by Flopy.
         8        53
         8         0 # stress period 1
         open/close ref\DRN_0000.dat
         8         0 # stress period 2
         open/close ref\DRN_0001.dat
         8         0 # stress period 3
         open/close ref\DRN_0002.dat
         8         0 # stress period 4
         open/close ref\DRN_0003.dat
         8         0 # stress period 5
         open/close ref\DRN_0004.dat
         8         0 # stress period 6
         open/close ref\DRN_0005.dat
         8         0 # stress period 7
         open/close ref\DRN_0006.dat
         8         0 # stress period 8
         open/close ref\DRN_0007.dat
         8         0 # stress period 9
         open/close ref\DRN_0008.dat
         8         0 # stress period 10
         open/close ref\DRN_0009.dat
         8         0 # stress period 11
         open/close ref\DRN_0010.dat
         8         0 # stress period 12
         open/close ref\DRN_0011.dat
         8         0 # stress period 13
         open/close ref\DRN_0012.dat
         8         0 # stress period 14
         open/close ref\DRN_0013.dat
         8         0 # stress period 15
         open/close ref\DRN_0014.dat
         8         0 # stress period 16
         open/close ref\DRN_0015.dat
         8         0 # stress period 17
         open/close ref\DRN_0016.dat
         8         0 # stress period 18
         open/close ref\DRN_0017.dat
         8         0 # stress period 19
         open/close ref\DRN_0018.dat
         8         0 # stress period 20
         open/close ref\DRN_0019.dat
         8         0 # stress period 21
         open/close ref\DRN_0020.dat
         8         0 # stress period 22
         open/close ref\DRN_0021.dat
         8         0 # stress period 23
         open/close ref\DRN_0022.dat
         8         0 # stress period 24
         open/close ref\DRN_0023.dat
         8         0 # stress period 25
         open/close ref\DRN_0024.dat
         8         0 # stress period 26
         open/close ref\DRN_0025.dat
         8         0 # stress period 27
         open/close ref\DRN_0026.dat
         8         0 # stress period 28
         open/close ref\DRN_0027.dat
         8         0 # stress period 29
         open/close ref\DRN_0028.dat
         8         0 # stress period 30
         open/close ref\DRN_0029.dat
         8         0 # stress period 31
         open/close ref\DRN_0030.dat
         8         0 # stress period 32
         open/close ref\DRN_0031.dat
         8         0 # stress period 33
         open/close ref\DRN_0032.dat
         8         0 # stress period 34
         open/close ref\DRN_0033.dat
         8         0 # stress period 35
         open/close ref\DRN_0034.dat
         8         0 # stress period 36
         open/close ref\DRN_0035.dat
         8         0 # stress period 37
         open/close ref\DRN_0036.dat
         8         0 # stress period 38
         open/close ref\DRN_0037.dat
         8         0 # stress period 39
         open/close ref\DRN_0038.dat
         8         0 # stress period 40
         open/close ref\DRN_0039.dat
         8         0 # stress period 41
         open/close ref\DRN_0040.dat
         8         0 # stress period 42
         open/close ref\DRN_0041.dat
         8         0 # stress period 43
         open/close ref\DRN_0042.dat
         8         0 # stress period 44
         open/close ref\DRN_0043.dat
         8         0 # stress period 45
         open/close ref\DRN_0044.dat
         8         0 # stress period 46
         open/close ref\DRN_0045.dat
         8         0 # stress period 47
         open/close ref\DRN_0046.dat
         8         0 # stress period 48
         open/close ref\DRN_0047.dat
         8         0 # stress period 49
         open/close ref\DRN_0048.dat
         8         0 # stress period 50
         open/close ref\DRN_0049.dat
         8         0 # stress period 51
         open/close ref\DRN_0050.dat
         8         0 # stress period 52
         open/close ref\DRN_0051.dat
         8         0 # stress period 53
         open/close ref\DRN_0052.dat
         8         0 # stress period 54
         open/close ref\DRN_0053.dat
         8         0 # stress period 55
         open/close ref\DRN_0054.dat
         8         0 # stress period 56
         open/close ref\DRN_0055.dat
         8         0 # stress period 57
         open/close ref\DRN_0056.dat
         8         0 # stress period 58
         open/close ref\DRN_0057.dat
         8         0 # stress period 59
         open/close ref\DRN_0058.dat
         8         0 # stress period 60
         open/close ref\DRN_0059.dat
         8         0 # stress period 61
         open/close ref\DRN_0060.dat
         8         0 # stress period 62
         open/close ref\DRN_0061.dat
         8         0 # stress period 63
         open/close ref\DRN_0062.dat
         8         0 # stress period 64
         open/close ref\DRN_0063.dat
         8         0 # stress period 65
         open/close ref\DRN_0064.dat
         8         0 # stress period 66
         open/close ref\DRN_0065.dat
         8         0 # stress period 67
         open/close ref\DRN_0066.dat
         8         0 # stress period 68
         open/close ref\DRN_0067.dat
         8         0 # stress period 69
         open/close ref\DRN_0068.dat
         8         0 # stress period 70
         open/close ref\DRN_0069.dat
         8         0 # stress period 71
         open/close ref\DRN_0070.dat
         8         0 # stress period 72
         open/close ref\DRN_0071.dat
         8         0 # stress period 73
         open/close ref\DRN_0072.dat
         8         0 # stress period 74
         open/close ref\DRN_0073.dat
         8         0 # stress period 75
         open/close ref\DRN_0074.dat
         8         0 # stress period 76
         open/close ref\DRN_0075.dat
         8         0 # stress period 77
         open/close ref\DRN_0076.dat
         8         0 # stress period 78
         open/close ref\DRN_0077.dat
         8         0 # stress period 79
         open/close ref\DRN_0078.dat
         8         0 # stress period 80
         open/close ref\DRN_0079.dat
         8         0 # stress period 81
         open/close ref\DRN_0080.dat
         8         0 # stress period 82
         open/close ref\DRN_0081.dat
         8         0 # stress period 83
         open/close ref\DRN_0082.dat
         8         0 # stress period 84
         open/close ref\DRN_0083.dat
         8         0 # stress period 85
         open/close ref\DRN_0084.dat
         8         0 # stress period 86
         open/close ref\DRN_0085.dat
         8         0 # stress period 87
         open/close ref\DRN_0086.dat
         8         0 # stress period 88
         open/close ref\DRN_0087.dat
         8         0 # stress period 89
         open/close ref\DRN_0088.dat
         8         0 # stress period 90
         open/close ref\DRN_0089.dat
         8         0 # stress period 91
         open/close ref\DRN_0090.dat
         8         0 # stress period 92
         open/close ref\DRN_0091.dat
         8         0 # stress period 93
         open/close ref\DRN_0092.dat
         8         0 # stress period 94
         open/close ref\DRN_0093.dat
         8         0 # stress period 95
         open/close ref\DRN_0094.dat
         8         0 # stress period 96
         open/close ref\DRN_0095.dat
         8         0 # stress period 97
         open/close ref\DRN_0096.dat
         8         0 # stress period 98
         open/close ref\DRN_0097.dat
         8         0 # stress period 99
         open/close ref\DRN_0098.dat
         8         0 # stress period 100
         open/close ref\DRN_0099.dat
         8         0 # stress period 101
         open/close ref\DRN_0100.dat
         8         0 # stress period 102
         open/close ref\DRN_0101.dat
         8         0 # stress period 103
         open/close ref\DRN_0102.dat
         8         0 # stress period 104
         open/close ref\DRN_0103.dat
         8         0 # stress period 105
         open/close ref\DRN_0104.dat
         8         0 # stress period 106
         open/close ref\DRN_0105.dat
         8         0 # stress period 107
         open/close ref\DRN_0106.dat
         8         0 # stress period 108
         open/close ref\DRN_0107.dat
         8         0 # stress period 109
         open/close ref\DRN_0108.dat
         8         0 # stress period 110
         open/close ref\DRN_0109.dat
         8         0 # stress period 111
         open/close ref\DRN_0110.dat
         8         0 # stress period 112
         open/close ref\DRN_0111.dat
         8         0 # stress period 113
         open/close ref\DRN_0112.dat
         8         0 # stress period 114
         open/close ref\DRN_0113.dat
         8         0 # stress period 115
         open/close ref\DRN_0114.dat
         8         0 # stress period 116
         open/close ref\DRN_0115.dat
         8         0 # stress period 117
         open/close ref\DRN_0116.dat
         8         0 # stress period 118
         open/close ref\DRN_0117.dat
         8         0 # stress period 119
         open/close ref\DRN_0118.dat
         8         0 # stress period 120
         open/close ref\DRN_0119.dat
         8         0 # stress period 121
         open/close ref\DRN_0120.dat
         8         0 # stress period 122
         open/close ref\DRN_0121.dat
         8         0 # stress period 123
         open/close ref\DRN_0122.dat
         8         0 # stress period 124
         open/close ref\DRN_0123.dat
         8         0 # stress period 125
         open/close ref\DRN_0124.dat
         8         0 # stress period 126
         open/close ref\DRN_0125.dat
         8         0 # stress period 127
         open/close ref\DRN_0126.dat
         8         0 # stress period 128
         open/close ref\DRN_0127.dat
         8         0 # stress period 129
         open/close ref\DRN_0128.dat
         8         0 # stress period 130
         open/close ref\DRN_0129.dat
         8         0 # stress period 131
         open/close ref\DRN_0130.dat
         8         0 # stress period 132
         open/close ref\DRN_0131.dat
         8         0 # stress period 133
         open/close ref\DRN_0132.dat
         8         0 # stress period 134
         open/close ref\DRN_0133.dat
         8         0 # stress period 135
         open/close ref\DRN_0134.dat
         8         0 # stress period 136
         open/close ref\DRN_0135.dat
         8         0 # stress period 137
         open/close ref\DRN_0136.dat
         8         0 # stress period 138
         open/close ref\DRN_0137.dat
         8         0 # stress period 139
         open/close ref\DRN_0138.dat
         8         0 # stress period 140
         open/close ref\DRN_0139.dat
         8         0 # stress period 141
         open/close ref\DRN_0140.dat
         8         0 # stress period 142
         open/close ref\DRN_0141.dat
         8         0 # stress period 143
         open/close ref\DRN_0142.dat
         8         0 # stress period 144
         open/close ref\DRN_0143.dat
         8         0 # stress period 145
         open/close ref\DRN_0144.dat
         8         0 # stress period 146
         open/close ref\DRN_0145.dat
         8         0 # stress period 147
         open/close ref\DRN_0146.dat
         8         0 # stress period 148
         open/close ref\DRN_0147.dat
         8         0 # stress period 149
         open/close ref\DRN_0148.dat
         8         0 # stress period 150
         open/close ref\DRN_0149.dat
         8         0 # stress period 151
         open/close ref\DRN_0150.dat
         8         0 # stress period 152
         open/close ref\DRN_0151.dat
         8         0 # stress period 153
         open/close ref\DRN_0152.dat
         8         0 # stress period 154
         open/close ref\DRN_0153.dat
         8         0 # stress period 155
         open/close ref\DRN_0154.dat
         8         0 # stress period 156
         open/close ref\DRN_0155.dat
         8         0 # stress period 157
         open/close ref\DRN_0156.dat
         8         0 # stress period 158
         open/close ref\DRN_0157.dat
         8         0 # stress period 159
         open/close ref\DRN_0158.dat
         8         0 # stress period 160
         open/close ref\DRN_0159.dat
         8         0 # stress period 161
         open/close ref\DRN_0160.dat
         8         0 # stress period 162
         open/close ref\DRN_0161.dat
         8         0 # stress period 163
         open/close ref\DRN_0162.dat
         8         0 # stress period 164
         open/close ref\DRN_0163.dat
         8         0 # stress period 165
         open/close ref\DRN_0164.dat
         8         0 # stress period 166
         open/close ref\DRN_0165.dat
         8         0 # stress period 167
         open/close ref\DRN_0166.dat
         8         0 # stress period 168
         open/close ref\DRN_0167.dat
         8         0 # stress period 169
         open/close ref\DRN_0168.dat
         8         0 # stress period 170
         open/close ref\DRN_0169.dat
         8         0 # stress period 171
         open/close ref\DRN_0170.dat
         8         0 # stress period 172
         open/close ref\DRN_0171.dat
         8         0 # stress period 173
         open/close ref\DRN_0172.dat
         8         0 # stress period 174
         open/close ref\DRN_0173.dat
         8         0 # stress period 175
         open/close ref\DRN_0174.dat
         8         0 # stress period 176
         open/close ref\DRN_0175.dat
         8         0 # stress period 177
         open/close ref\DRN_0176.dat
         8         0 # stress period 178
         open/close ref\DRN_0177.dat
         8         0 # stress period 179
         open/close ref\DRN_0178.dat
         8         0 # stress period 180
         open/close ref\DRN_0179.dat
