# GMG package for  MODFLOW-2000, generated by Flopy.
100.0 60 0.02 100
0.98 1 2 0
0 1 
0.97
