# WEL package for  MODFLOW-2000, generated by Flopy.
      3018        54
      2637         0 # stress period 1
         open/close ref\WEL_0000.dat
      2643         0 # stress period 2
         open/close ref\WEL_0001.dat
      2689         0 # stress period 3
         open/close ref\WEL_0002.dat
      2733         0 # stress period 4
         open/close ref\WEL_0003.dat
      2833         0 # stress period 5
         open/close ref\WEL_0004.dat
      2874         0 # stress period 6
         open/close ref\WEL_0005.dat
      2846         0 # stress period 7
         open/close ref\WEL_0006.dat
      2805         0 # stress period 8
         open/close ref\WEL_0007.dat
      2683         0 # stress period 9
         open/close ref\WEL_0008.dat
      2659         0 # stress period 10
         open/close ref\WEL_0009.dat
      2628         0 # stress period 11
         open/close ref\WEL_0010.dat
      2594         0 # stress period 12
         open/close ref\WEL_0011.dat
      2711         0 # stress period 13
         open/close ref\WEL_0012.dat
      2808         0 # stress period 14
         open/close ref\WEL_0013.dat
      2841         0 # stress period 15
         open/close ref\WEL_0014.dat
      2866         0 # stress period 16
         open/close ref\WEL_0015.dat
      2918         0 # stress period 17
         open/close ref\WEL_0016.dat
      2924         0 # stress period 18
         open/close ref\WEL_0017.dat
      2797         0 # stress period 19
         open/close ref\WEL_0018.dat
      2794         0 # stress period 20
         open/close ref\WEL_0019.dat
      2764         0 # stress period 21
         open/close ref\WEL_0020.dat
      2719         0 # stress period 22
         open/close ref\WEL_0021.dat
      2696         0 # stress period 23
         open/close ref\WEL_0022.dat
      2688         0 # stress period 24
         open/close ref\WEL_0023.dat
      2859         0 # stress period 25
         open/close ref\WEL_0024.dat
      2872         0 # stress period 26
         open/close ref\WEL_0025.dat
      2926         0 # stress period 27
         open/close ref\WEL_0026.dat
      2964         0 # stress period 28
         open/close ref\WEL_0027.dat
      2975         0 # stress period 29
         open/close ref\WEL_0028.dat
      2956         0 # stress period 30
         open/close ref\WEL_0029.dat
      2926         0 # stress period 31
         open/close ref\WEL_0030.dat
      2916         0 # stress period 32
         open/close ref\WEL_0031.dat
      2883         0 # stress period 33
         open/close ref\WEL_0032.dat
      2880         0 # stress period 34
         open/close ref\WEL_0033.dat
      2893         0 # stress period 35
         open/close ref\WEL_0034.dat
      2891         0 # stress period 36
         open/close ref\WEL_0035.dat
      2891         0 # stress period 37
         open/close ref\WEL_0036.dat
      2913         0 # stress period 38
         open/close ref\WEL_0037.dat
      2928         0 # stress period 39
         open/close ref\WEL_0038.dat
      2950         0 # stress period 40
         open/close ref\WEL_0039.dat
      2983         0 # stress period 41
         open/close ref\WEL_0040.dat
      2982         0 # stress period 42
         open/close ref\WEL_0041.dat
      2971         0 # stress period 43
         open/close ref\WEL_0042.dat
      2962         0 # stress period 44
         open/close ref\WEL_0043.dat
      2934         0 # stress period 45
         open/close ref\WEL_0044.dat
      2895         0 # stress period 46
         open/close ref\WEL_0045.dat
      2904         0 # stress period 47
         open/close ref\WEL_0046.dat
      2903         0 # stress period 48
         open/close ref\WEL_0047.dat
      2708         0 # stress period 49
         open/close ref\WEL_0048.dat
      2721         0 # stress period 50
         open/close ref\WEL_0049.dat
      2820         0 # stress period 51
         open/close ref\WEL_0050.dat
      2905         0 # stress period 52
         open/close ref\WEL_0051.dat
      2966         0 # stress period 53
         open/close ref\WEL_0052.dat
      2988         0 # stress period 54
         open/close ref\WEL_0053.dat
      2935         0 # stress period 55
         open/close ref\WEL_0054.dat
      2892         0 # stress period 56
         open/close ref\WEL_0055.dat
      2829         0 # stress period 57
         open/close ref\WEL_0056.dat
      2785         0 # stress period 58
         open/close ref\WEL_0057.dat
      2775         0 # stress period 59
         open/close ref\WEL_0058.dat
      2791         0 # stress period 60
         open/close ref\WEL_0059.dat
      2863         0 # stress period 61
         open/close ref\WEL_0060.dat
      2912         0 # stress period 62
         open/close ref\WEL_0061.dat
      2972         0 # stress period 63
         open/close ref\WEL_0062.dat
      3008         0 # stress period 64
         open/close ref\WEL_0063.dat
      3011         0 # stress period 65
         open/close ref\WEL_0064.dat
      3016         0 # stress period 66
         open/close ref\WEL_0065.dat
      2987         0 # stress period 67
         open/close ref\WEL_0066.dat
      2948         0 # stress period 68
         open/close ref\WEL_0067.dat
      2904         0 # stress period 69
         open/close ref\WEL_0068.dat
      2859         0 # stress period 70
         open/close ref\WEL_0069.dat
      2851         0 # stress period 71
         open/close ref\WEL_0070.dat
      2841         0 # stress period 72
         open/close ref\WEL_0071.dat
      2762         0 # stress period 73
         open/close ref\WEL_0072.dat
      2822         0 # stress period 74
         open/close ref\WEL_0073.dat
      2829         0 # stress period 75
         open/close ref\WEL_0074.dat
      2829         0 # stress period 76
         open/close ref\WEL_0075.dat
      2844         0 # stress period 77
         open/close ref\WEL_0076.dat
      2854         0 # stress period 78
         open/close ref\WEL_0077.dat
      2796         0 # stress period 79
         open/close ref\WEL_0078.dat
      2803         0 # stress period 80
         open/close ref\WEL_0079.dat
      2819         0 # stress period 81
         open/close ref\WEL_0080.dat
      2808         0 # stress period 82
         open/close ref\WEL_0081.dat
      2812         0 # stress period 83
         open/close ref\WEL_0082.dat
      2838         0 # stress period 84
         open/close ref\WEL_0083.dat
      2906         0 # stress period 85
         open/close ref\WEL_0084.dat
      2969         0 # stress period 86
         open/close ref\WEL_0085.dat
      2955         0 # stress period 87
         open/close ref\WEL_0086.dat
      2961         0 # stress period 88
         open/close ref\WEL_0087.dat
      2974         0 # stress period 89
         open/close ref\WEL_0088.dat
      2963         0 # stress period 90
         open/close ref\WEL_0089.dat
      2943         0 # stress period 91
         open/close ref\WEL_0090.dat
      2927         0 # stress period 92
         open/close ref\WEL_0091.dat
      2911         0 # stress period 93
         open/close ref\WEL_0092.dat
      2903         0 # stress period 94
         open/close ref\WEL_0093.dat
      2915         0 # stress period 95
         open/close ref\WEL_0094.dat
      2933         0 # stress period 96
         open/close ref\WEL_0095.dat
      2875         0 # stress period 97
         open/close ref\WEL_0096.dat
      2909         0 # stress period 98
         open/close ref\WEL_0097.dat
      2926         0 # stress period 99
         open/close ref\WEL_0098.dat
      2950         0 # stress period 100
         open/close ref\WEL_0099.dat
      2945         0 # stress period 101
         open/close ref\WEL_0100.dat
      2957         0 # stress period 102
         open/close ref\WEL_0101.dat
      2915         0 # stress period 103
         open/close ref\WEL_0102.dat
      2907         0 # stress period 104
         open/close ref\WEL_0103.dat
      2873         0 # stress period 105
         open/close ref\WEL_0104.dat
      2846         0 # stress period 106
         open/close ref\WEL_0105.dat
      2830         0 # stress period 107
         open/close ref\WEL_0106.dat
      2837         0 # stress period 108
         open/close ref\WEL_0107.dat
      2736         0 # stress period 109
         open/close ref\WEL_0108.dat
      2741         0 # stress period 110
         open/close ref\WEL_0109.dat
      2815         0 # stress period 111
         open/close ref\WEL_0110.dat
      2886         0 # stress period 112
         open/close ref\WEL_0111.dat
      2930         0 # stress period 113
         open/close ref\WEL_0112.dat
      2944         0 # stress period 114
         open/close ref\WEL_0113.dat
      2921         0 # stress period 115
         open/close ref\WEL_0114.dat
      2913         0 # stress period 116
         open/close ref\WEL_0115.dat
      2840         0 # stress period 117
         open/close ref\WEL_0116.dat
      2811         0 # stress period 118
         open/close ref\WEL_0117.dat
      2827         0 # stress period 119
         open/close ref\WEL_0118.dat
      2900         0 # stress period 120
         open/close ref\WEL_0119.dat
      2787         0 # stress period 121
         open/close ref\WEL_0120.dat
      2862         0 # stress period 122
         open/close ref\WEL_0121.dat
      2943         0 # stress period 123
         open/close ref\WEL_0122.dat
      2994         0 # stress period 124
         open/close ref\WEL_0123.dat
      3000         0 # stress period 125
         open/close ref\WEL_0124.dat
      3018         0 # stress period 126
         open/close ref\WEL_0125.dat
      2965         0 # stress period 127
         open/close ref\WEL_0126.dat
      2905         0 # stress period 128
         open/close ref\WEL_0127.dat
      2874         0 # stress period 129
         open/close ref\WEL_0128.dat
      2811         0 # stress period 130
         open/close ref\WEL_0129.dat
      2782         0 # stress period 131
         open/close ref\WEL_0130.dat
      2766         0 # stress period 132
         open/close ref\WEL_0131.dat
      2068         0 # stress period 133
         open/close ref\WEL_0132.dat
      2068         0 # stress period 134
         open/close ref\WEL_0133.dat
      2148         0 # stress period 135
         open/close ref\WEL_0134.dat
      2273         0 # stress period 136
         open/close ref\WEL_0135.dat
      2290         0 # stress period 137
         open/close ref\WEL_0136.dat
      2309         0 # stress period 138
         open/close ref\WEL_0137.dat
      2252         0 # stress period 139
         open/close ref\WEL_0138.dat
      2216         0 # stress period 140
         open/close ref\WEL_0139.dat
      2151         0 # stress period 141
         open/close ref\WEL_0140.dat
      2135         0 # stress period 142
         open/close ref\WEL_0141.dat
      2130         0 # stress period 143
         open/close ref\WEL_0142.dat
      2203         0 # stress period 144
         open/close ref\WEL_0143.dat
      2152         0 # stress period 145
         open/close ref\WEL_0144.dat
      2253         0 # stress period 146
         open/close ref\WEL_0145.dat
      2300         0 # stress period 147
         open/close ref\WEL_0146.dat
      2297         0 # stress period 148
         open/close ref\WEL_0147.dat
      2294         0 # stress period 149
         open/close ref\WEL_0148.dat
      2279         0 # stress period 150
         open/close ref\WEL_0149.dat
      2249         0 # stress period 151
         open/close ref\WEL_0150.dat
      2216         0 # stress period 152
         open/close ref\WEL_0151.dat
      2175         0 # stress period 153
         open/close ref\WEL_0152.dat
      2122         0 # stress period 154
         open/close ref\WEL_0153.dat
      2108         0 # stress period 155
         open/close ref\WEL_0154.dat
      2164         0 # stress period 156
         open/close ref\WEL_0155.dat
      2148         0 # stress period 157
         open/close ref\WEL_0156.dat
      2202         0 # stress period 158
         open/close ref\WEL_0157.dat
      2250         0 # stress period 159
         open/close ref\WEL_0158.dat
      2276         0 # stress period 160
         open/close ref\WEL_0159.dat
      2265         0 # stress period 161
         open/close ref\WEL_0160.dat
      2267         0 # stress period 162
         open/close ref\WEL_0161.dat
      2248         0 # stress period 163
         open/close ref\WEL_0162.dat
      2200         0 # stress period 164
         open/close ref\WEL_0163.dat
      2117         0 # stress period 165
         open/close ref\WEL_0164.dat
      2096         0 # stress period 166
         open/close ref\WEL_0165.dat
      2090         0 # stress period 167
         open/close ref\WEL_0166.dat
      2126         0 # stress period 168
         open/close ref\WEL_0167.dat
      2029         0 # stress period 169
         open/close ref\WEL_0168.dat
      2050         0 # stress period 170
         open/close ref\WEL_0169.dat
      2092         0 # stress period 171
         open/close ref\WEL_0170.dat
      2106         0 # stress period 172
         open/close ref\WEL_0171.dat
      2052         0 # stress period 173
         open/close ref\WEL_0172.dat
      2091         0 # stress period 174
         open/close ref\WEL_0173.dat
      2188         0 # stress period 175
         open/close ref\WEL_0174.dat
      2176         0 # stress period 176
         open/close ref\WEL_0175.dat
      2145         0 # stress period 177
         open/close ref\WEL_0176.dat
      2071         0 # stress period 178
         open/close ref\WEL_0177.dat
      2028         0 # stress period 179
         open/close ref\WEL_0178.dat
      2046         0 # stress period 180
         open/close ref\WEL_0179.dat
