# BAS6 package for  MODFLOW-2000, generated by Flopy.
 FREE STOPERROR 10
OPEN/CLOSE          ref\ibound_layer_1.ref               1   (700I10) -1 ibound layer 1                
          1E+30
OPEN/CLOSE            ref\strt_layer_1.ref               1     (FREE) -1 strt_layer_0                  
