# OC package for  MODFLOW-2000, generated by Flopy.
HEAD PRINT FORMAT   0
HEAD SAVE UNIT    10
DRAWDOWN PRINT FORMAT   0

period 1 step 1 
  PRINT BUDGET
  SAVE BUDGET
  SAVE HEAD

period 2 step 1 
  PRINT BUDGET
  SAVE BUDGET
  SAVE HEAD

period 3 step 1 
  PRINT BUDGET
  SAVE BUDGET
  SAVE HEAD

period 4 step 1 
  PRINT BUDGET
  SAVE BUDGET
  SAVE HEAD

period 5 step 1 
  PRINT BUDGET
  SAVE BUDGET
  SAVE HEAD

period 6 step 1 
  PRINT BUDGET
  SAVE BUDGET
  SAVE HEAD

period 7 step 1 
  PRINT BUDGET
  SAVE BUDGET
  SAVE HEAD

period 8 step 1 
  PRINT BUDGET
  SAVE BUDGET
  SAVE HEAD

period 9 step 1 
  PRINT BUDGET
  SAVE BUDGET
  SAVE HEAD

period 10 step 1 
  PRINT BUDGET
  SAVE BUDGET
  SAVE HEAD

period 11 step 1 
  PRINT BUDGET
  SAVE BUDGET
  SAVE HEAD

period 12 step 1 
  PRINT BUDGET
  SAVE BUDGET
  SAVE HEAD

period 13 step 1 
  PRINT BUDGET
  SAVE BUDGET
  SAVE HEAD

period 14 step 1 
  PRINT BUDGET
  SAVE BUDGET
  SAVE HEAD

period 15 step 1 
  PRINT BUDGET
  SAVE BUDGET
  SAVE HEAD

period 16 step 1 
  PRINT BUDGET
  SAVE BUDGET
  SAVE HEAD

period 17 step 1 
  PRINT BUDGET
  SAVE BUDGET
  SAVE HEAD

period 18 step 1 
  PRINT BUDGET
  SAVE BUDGET
  SAVE HEAD

period 19 step 1 
  PRINT BUDGET
  SAVE BUDGET
  SAVE HEAD

period 20 step 1 
  PRINT BUDGET
  SAVE BUDGET
  SAVE HEAD

period 21 step 1 
  PRINT BUDGET
  SAVE BUDGET
  SAVE HEAD

period 22 step 1 
  PRINT BUDGET
  SAVE BUDGET
  SAVE HEAD

period 23 step 1 
  PRINT BUDGET
  SAVE BUDGET
  SAVE HEAD

period 24 step 1 
  PRINT BUDGET
  SAVE BUDGET
  SAVE HEAD

period 25 step 1 
  PRINT BUDGET
  SAVE BUDGET
  SAVE HEAD

period 26 step 1 
  PRINT BUDGET
  SAVE BUDGET
  SAVE HEAD

period 27 step 1 
  PRINT BUDGET
  SAVE BUDGET
  SAVE HEAD

period 28 step 1 
  PRINT BUDGET
  SAVE BUDGET
  SAVE HEAD

period 29 step 1 
  PRINT BUDGET
  SAVE BUDGET
  SAVE HEAD

period 30 step 1 
  PRINT BUDGET
  SAVE BUDGET
  SAVE HEAD

period 31 step 1 
  PRINT BUDGET
  SAVE BUDGET
  SAVE HEAD

period 32 step 1 
  PRINT BUDGET
  SAVE BUDGET
  SAVE HEAD

period 33 step 1 
  PRINT BUDGET
  SAVE BUDGET
  SAVE HEAD

period 34 step 1 
  PRINT BUDGET
  SAVE BUDGET
  SAVE HEAD

period 35 step 1 
  PRINT BUDGET
  SAVE BUDGET
  SAVE HEAD

period 36 step 1 
  PRINT BUDGET
  SAVE BUDGET
  SAVE HEAD

period 37 step 1 
  PRINT BUDGET
  SAVE BUDGET
  SAVE HEAD

period 38 step 1 
  PRINT BUDGET
  SAVE BUDGET
  SAVE HEAD

period 39 step 1 
  PRINT BUDGET
  SAVE BUDGET
  SAVE HEAD

period 40 step 1 
  PRINT BUDGET
  SAVE BUDGET
  SAVE HEAD

period 41 step 1 
  PRINT BUDGET
  SAVE BUDGET
  SAVE HEAD

period 42 step 1 
  PRINT BUDGET
  SAVE BUDGET
  SAVE HEAD

period 43 step 1 
  PRINT BUDGET
  SAVE BUDGET
  SAVE HEAD

period 44 step 1 
  PRINT BUDGET
  SAVE BUDGET
  SAVE HEAD

period 45 step 1 
  PRINT BUDGET
  SAVE BUDGET
  SAVE HEAD

period 46 step 1 
  PRINT BUDGET
  SAVE BUDGET
  SAVE HEAD

period 47 step 1 
  PRINT BUDGET
  SAVE BUDGET
  SAVE HEAD

period 48 step 1 
  PRINT BUDGET
  SAVE BUDGET
  SAVE HEAD

period 49 step 1 
  PRINT BUDGET
  SAVE BUDGET
  SAVE HEAD

period 50 step 1 
  PRINT BUDGET
  SAVE BUDGET
  SAVE HEAD

period 51 step 1 
  PRINT BUDGET
  SAVE BUDGET
  SAVE HEAD

period 52 step 1 
  PRINT BUDGET
  SAVE BUDGET
  SAVE HEAD

period 53 step 1 
  PRINT BUDGET
  SAVE BUDGET
  SAVE HEAD

period 54 step 1 
  PRINT BUDGET
  SAVE BUDGET
  SAVE HEAD

period 55 step 1 
  PRINT BUDGET
  SAVE BUDGET
  SAVE HEAD

period 56 step 1 
  PRINT BUDGET
  SAVE BUDGET
  SAVE HEAD

period 57 step 1 
  PRINT BUDGET
  SAVE BUDGET
  SAVE HEAD

period 58 step 1 
  PRINT BUDGET
  SAVE BUDGET
  SAVE HEAD

period 59 step 1 
  PRINT BUDGET
  SAVE BUDGET
  SAVE HEAD

period 60 step 1 
  PRINT BUDGET
  SAVE BUDGET
  SAVE HEAD

period 61 step 1 
  PRINT BUDGET
  SAVE BUDGET
  SAVE HEAD

period 62 step 1 
  PRINT BUDGET
  SAVE BUDGET
  SAVE HEAD

period 63 step 1 
  PRINT BUDGET
  SAVE BUDGET
  SAVE HEAD

period 64 step 1 
  PRINT BUDGET
  SAVE BUDGET
  SAVE HEAD

period 65 step 1 
  PRINT BUDGET
  SAVE BUDGET
  SAVE HEAD

period 66 step 1 
  PRINT BUDGET
  SAVE BUDGET
  SAVE HEAD

period 67 step 1 
  PRINT BUDGET
  SAVE BUDGET
  SAVE HEAD

period 68 step 1 
  PRINT BUDGET
  SAVE BUDGET
  SAVE HEAD

period 69 step 1 
  PRINT BUDGET
  SAVE BUDGET
  SAVE HEAD

period 70 step 1 
  PRINT BUDGET
  SAVE BUDGET
  SAVE HEAD

period 71 step 1 
  PRINT BUDGET
  SAVE BUDGET
  SAVE HEAD

period 72 step 1 
  PRINT BUDGET
  SAVE BUDGET
  SAVE HEAD

period 73 step 1 
  PRINT BUDGET
  SAVE BUDGET
  SAVE HEAD

period 74 step 1 
  PRINT BUDGET
  SAVE BUDGET
  SAVE HEAD

period 75 step 1 
  PRINT BUDGET
  SAVE BUDGET
  SAVE HEAD

period 76 step 1 
  PRINT BUDGET
  SAVE BUDGET
  SAVE HEAD

period 77 step 1 
  PRINT BUDGET
  SAVE BUDGET
  SAVE HEAD

period 78 step 1 
  PRINT BUDGET
  SAVE BUDGET
  SAVE HEAD

period 79 step 1 
  PRINT BUDGET
  SAVE BUDGET
  SAVE HEAD

period 80 step 1 
  PRINT BUDGET
  SAVE BUDGET
  SAVE HEAD

period 81 step 1 
  PRINT BUDGET
  SAVE BUDGET
  SAVE HEAD

period 82 step 1 
  PRINT BUDGET
  SAVE BUDGET
  SAVE HEAD

period 83 step 1 
  PRINT BUDGET
  SAVE BUDGET
  SAVE HEAD

period 84 step 1 
  PRINT BUDGET
  SAVE BUDGET
  SAVE HEAD

period 85 step 1 
  PRINT BUDGET
  SAVE BUDGET
  SAVE HEAD

period 86 step 1 
  PRINT BUDGET
  SAVE BUDGET
  SAVE HEAD

period 87 step 1 
  PRINT BUDGET
  SAVE BUDGET
  SAVE HEAD

period 88 step 1 
  PRINT BUDGET
  SAVE BUDGET
  SAVE HEAD

period 89 step 1 
  PRINT BUDGET
  SAVE BUDGET
  SAVE HEAD

period 90 step 1 
  PRINT BUDGET
  SAVE BUDGET
  SAVE HEAD

period 91 step 1 
  PRINT BUDGET
  SAVE BUDGET
  SAVE HEAD

period 92 step 1 
  PRINT BUDGET
  SAVE BUDGET
  SAVE HEAD

period 93 step 1 
  PRINT BUDGET
  SAVE BUDGET
  SAVE HEAD

period 94 step 1 
  PRINT BUDGET
  SAVE BUDGET
  SAVE HEAD

period 95 step 1 
  PRINT BUDGET
  SAVE BUDGET
  SAVE HEAD

period 96 step 1 
  PRINT BUDGET
  SAVE BUDGET
  SAVE HEAD

period 97 step 1 
  PRINT BUDGET
  SAVE BUDGET
  SAVE HEAD

period 98 step 1 
  PRINT BUDGET
  SAVE BUDGET
  SAVE HEAD

period 99 step 1 
  PRINT BUDGET
  SAVE BUDGET
  SAVE HEAD

period 100 step 1 
  PRINT BUDGET
  SAVE BUDGET
  SAVE HEAD

period 101 step 1 
  PRINT BUDGET
  SAVE BUDGET
  SAVE HEAD

period 102 step 1 
  PRINT BUDGET
  SAVE BUDGET
  SAVE HEAD

period 103 step 1 
  PRINT BUDGET
  SAVE BUDGET
  SAVE HEAD

period 104 step 1 
  PRINT BUDGET
  SAVE BUDGET
  SAVE HEAD

period 105 step 1 
  PRINT BUDGET
  SAVE BUDGET
  SAVE HEAD

period 106 step 1 
  PRINT BUDGET
  SAVE BUDGET
  SAVE HEAD

period 107 step 1 
  PRINT BUDGET
  SAVE BUDGET
  SAVE HEAD

period 108 step 1 
  PRINT BUDGET
  SAVE BUDGET
  SAVE HEAD

period 109 step 1 
  PRINT BUDGET
  SAVE BUDGET
  SAVE HEAD

period 110 step 1 
  PRINT BUDGET
  SAVE BUDGET
  SAVE HEAD

period 111 step 1 
  PRINT BUDGET
  SAVE BUDGET
  SAVE HEAD

period 112 step 1 
  PRINT BUDGET
  SAVE BUDGET
  SAVE HEAD

period 113 step 1 
  PRINT BUDGET
  SAVE BUDGET
  SAVE HEAD

period 114 step 1 
  PRINT BUDGET
  SAVE BUDGET
  SAVE HEAD

period 115 step 1 
  PRINT BUDGET
  SAVE BUDGET
  SAVE HEAD

period 116 step 1 
  PRINT BUDGET
  SAVE BUDGET
  SAVE HEAD

period 117 step 1 
  PRINT BUDGET
  SAVE BUDGET
  SAVE HEAD

period 118 step 1 
  PRINT BUDGET
  SAVE BUDGET
  SAVE HEAD

period 119 step 1 
  PRINT BUDGET
  SAVE BUDGET
  SAVE HEAD

period 120 step 1 
  PRINT BUDGET
  SAVE BUDGET
  SAVE HEAD

period 121 step 1 
  PRINT BUDGET
  SAVE BUDGET
  SAVE HEAD

period 122 step 1 
  PRINT BUDGET
  SAVE BUDGET
  SAVE HEAD

period 123 step 1 
  PRINT BUDGET
  SAVE BUDGET
  SAVE HEAD

period 124 step 1 
  PRINT BUDGET
  SAVE BUDGET
  SAVE HEAD

period 125 step 1 
  PRINT BUDGET
  SAVE BUDGET
  SAVE HEAD

period 126 step 1 
  PRINT BUDGET
  SAVE BUDGET
  SAVE HEAD

period 127 step 1 
  PRINT BUDGET
  SAVE BUDGET
  SAVE HEAD

period 128 step 1 
  PRINT BUDGET
  SAVE BUDGET
  SAVE HEAD

period 129 step 1 
  PRINT BUDGET
  SAVE BUDGET
  SAVE HEAD

period 130 step 1 
  PRINT BUDGET
  SAVE BUDGET
  SAVE HEAD

period 131 step 1 
  PRINT BUDGET
  SAVE BUDGET
  SAVE HEAD

period 132 step 1 
  PRINT BUDGET
  SAVE BUDGET
  SAVE HEAD

period 133 step 1 
  PRINT BUDGET
  SAVE BUDGET
  SAVE HEAD

period 134 step 1 
  PRINT BUDGET
  SAVE BUDGET
  SAVE HEAD

period 135 step 1 
  PRINT BUDGET
  SAVE BUDGET
  SAVE HEAD

period 136 step 1 
  PRINT BUDGET
  SAVE BUDGET
  SAVE HEAD

period 137 step 1 
  PRINT BUDGET
  SAVE BUDGET
  SAVE HEAD

period 138 step 1 
  PRINT BUDGET
  SAVE BUDGET
  SAVE HEAD

period 139 step 1 
  PRINT BUDGET
  SAVE BUDGET
  SAVE HEAD

period 140 step 1 
  PRINT BUDGET
  SAVE BUDGET
  SAVE HEAD

period 141 step 1 
  PRINT BUDGET
  SAVE BUDGET
  SAVE HEAD

period 142 step 1 
  PRINT BUDGET
  SAVE BUDGET
  SAVE HEAD

period 143 step 1 
  PRINT BUDGET
  SAVE BUDGET
  SAVE HEAD

period 144 step 1 
  PRINT BUDGET
  SAVE BUDGET
  SAVE HEAD

period 145 step 1 
  PRINT BUDGET
  SAVE BUDGET
  SAVE HEAD

period 146 step 1 
  PRINT BUDGET
  SAVE BUDGET
  SAVE HEAD

period 147 step 1 
  PRINT BUDGET
  SAVE BUDGET
  SAVE HEAD

period 148 step 1 
  PRINT BUDGET
  SAVE BUDGET
  SAVE HEAD

period 149 step 1 
  PRINT BUDGET
  SAVE BUDGET
  SAVE HEAD

period 150 step 1 
  PRINT BUDGET
  SAVE BUDGET
  SAVE HEAD

period 151 step 1 
  PRINT BUDGET
  SAVE BUDGET
  SAVE HEAD

period 152 step 1 
  PRINT BUDGET
  SAVE BUDGET
  SAVE HEAD

period 153 step 1 
  PRINT BUDGET
  SAVE BUDGET
  SAVE HEAD

period 154 step 1 
  PRINT BUDGET
  SAVE BUDGET
  SAVE HEAD

period 155 step 1 
  PRINT BUDGET
  SAVE BUDGET
  SAVE HEAD

period 156 step 1 
  PRINT BUDGET
  SAVE BUDGET
  SAVE HEAD

period 157 step 1 
  PRINT BUDGET
  SAVE BUDGET
  SAVE HEAD

period 158 step 1 
  PRINT BUDGET
  SAVE BUDGET
  SAVE HEAD

period 159 step 1 
  PRINT BUDGET
  SAVE BUDGET
  SAVE HEAD

period 160 step 1 
  PRINT BUDGET
  SAVE BUDGET
  SAVE HEAD

period 161 step 1 
  PRINT BUDGET
  SAVE BUDGET
  SAVE HEAD

period 162 step 1 
  PRINT BUDGET
  SAVE BUDGET
  SAVE HEAD

period 163 step 1 
  PRINT BUDGET
  SAVE BUDGET
  SAVE HEAD

period 164 step 1 
  PRINT BUDGET
  SAVE BUDGET
  SAVE HEAD

period 165 step 1 
  PRINT BUDGET
  SAVE BUDGET
  SAVE HEAD

period 166 step 1 
  PRINT BUDGET
  SAVE BUDGET
  SAVE HEAD

period 167 step 1 
  PRINT BUDGET
  SAVE BUDGET
  SAVE HEAD

period 168 step 1 
  PRINT BUDGET
  SAVE BUDGET
  SAVE HEAD

period 169 step 1 
  PRINT BUDGET
  SAVE BUDGET
  SAVE HEAD

period 170 step 1 
  PRINT BUDGET
  SAVE BUDGET
  SAVE HEAD

period 171 step 1 
  PRINT BUDGET
  SAVE BUDGET
  SAVE HEAD

period 172 step 1 
  PRINT BUDGET
  SAVE BUDGET
  SAVE HEAD

period 173 step 1 
  PRINT BUDGET
  SAVE BUDGET
  SAVE HEAD

period 174 step 1 
  PRINT BUDGET
  SAVE BUDGET
  SAVE HEAD

period 175 step 1 
  PRINT BUDGET
  SAVE BUDGET
  SAVE HEAD

period 176 step 1 
  PRINT BUDGET
  SAVE BUDGET
  SAVE HEAD

period 177 step 1 
  PRINT BUDGET
  SAVE BUDGET
  SAVE HEAD

period 178 step 1 
  PRINT BUDGET
  SAVE BUDGET
  SAVE HEAD

period 179 step 1 
  PRINT BUDGET
  SAVE BUDGET
  SAVE HEAD

period 180 step 1 
  PRINT BUDGET
  SAVE BUDGET
  SAVE HEAD

