# PCG for MODFLOW, generated by Flopy.
       350       300         1
1.0E-5 1.0000E+03   1.000000         0         1         0  1.000000
